/*--------------------------------*- C++ -*----------------------------------*\
| =========                 |                                                 |
| \\      /  F ield         | OpenFOAM: The Open Source CFD Toolbox           |
|  \\    /   O peration     | Version:  dev                                   |
|   \\  /    A nd           | Web:      www.OpenFOAM.org                      |
|    \\/     M anipulation  |                                                 |
\*---------------------------------------------------------------------------*/
FoamFile
{
    version     2.0;
    format      ascii;
    class       dictionary;
    object      createPatchDict;
}
// * * * * * * * * * * * * * * * * * * * * * * * * * * * * * * * * * * * * * //

geometry
{
    box
    {
        type searchableBox;
        min (0 0 0);
        max (1 1 1);
    }

    singleTri.obj
    {
        type triSurfaceMesh;
    }

    unitCube_me.stl
    {
        type triSurfaceMesh;
    }
};



surfaces
{
    //unitCube_me.stl
    //{
    //    regions
    //    {
    //        maxZ
    //        {
    //            type            autoPatch;
    //            featureAngle    60;
    //        }
    //    }
    //}

    singleTri.obj
    {
        type        cut;
        cutters     (box);
    }
}


// ************************************************************************* //
