/*--------------------------------*- C++ -*----------------------------------*\
| =========                 |                                                 |
| \\      /  F ield         | OpenFOAM: The Open Source CFD Toolbox           |
|  \\    /   O peration     | Version:  dev                                   |
|   \\  /    A nd           | Web:      www.OpenFOAM.org                      |
|    \\/     M anipulation  |                                                 |
\*---------------------------------------------------------------------------*/
FoamFile
{
    version     2.0;
    format      ascii;
    class       dictionary;
    location    "system";
    object      fvSolution;
}
// * * * * * * * * * * * * * * * * * * * * * * * * * * * * * * * * * * * * * //

solvers
{
    p
    {
        solver          PBiCG;
        preconditioner  DILU;   //DIC;
        tolerance       1e-06;
        relTol          0.01;
    }

    pFinal
    {
        $p;
        relTol          0;
    }

    pcorr
    {
        solver          PCG;
        preconditioner  DIC;
        tolerance       1e-06;
        relTol          0;
    }

    "rho.*"
    {
        $p;
        tolerance       1e-05;
        relTol          0;
    }

    "(U|h|e|R|k|epsilon|omega)"
    {
        solver          smoothSolver;
        smoother        symGaussSeidel;
        tolerance       1e-05;
        relTol          0.1;
    }

    "(U|h|e|R|k|epsilon|omega)Final"
    {
        $U;
        relTol          0;
    }
}

PIMPLE
{
    momentumPredictor yes;
    nOuterCorrectors 1;
    nCorrectors     2;
    transonic       yes;
    nNonOrthogonalCorrectors 0;
    rhoMin          rhoMin [ 1 -3 0 0 0 ]  0.5;
    rhoMax          rhoMax [ 1 -3 0 0 0 ] 100.0;

    residualControl
    {
        "(U|k|epsilon)"
        {
            relTol          0;
            tolerance       0.0001;
        }
    }
}

relaxationFactors
{
    fields
    {
    }
    equations
    {
        "U.*"           1;
        "h.*"           1;
        "e.*"           1;
        "k.*"           1;
        "epsilon.*"     1;
    }
}


// ************************************************************************* //
