/*--------------------------------*- C++ -*----------------------------------*\
| =========                 |                                                 |
| \\      /  F ield         | OpenFOAM: The Open Source CFD Toolbox           |
|  \\    /   O peration     | Version:  dev                                   |
|   \\  /    A nd           | Web:      www.OpenFOAM.com                      |
|    \\/     M anipulation  |                                                 |
\*---------------------------------------------------------------------------*/
FoamFile
{
    version     2.0;
    format      ascii;
    class       polyBoundaryMesh;
    location    "constant/polyMesh";
    object      boundary;
}
// * * * * * * * * * * * * * * * * * * * * * * * * * * * * * * * * * * * * * //

6
(
    outlet
    {
        type            patch;
        nFaces          600;
        startFace       25650;
    }
    sides
    {
        type            patch;
        nFaces          600;
        startFace       26250;
    }
    inlet
    {
        type            patch;
        nFaces          0;
        startFace       26850;
    }
    ground
    {
        type            wall;
        nFaces          450;
        startFace       26850;
    }
    top
    {
        type            patch;
        nFaces          450;
        startFace       27300;
    }
    procBoundary1to0
    {
        type            processor;
        nFaces          600;
        startFace       27750;
        myProcNo        1;
        neighbProcNo    0;
    }
)

// ************************************************************************* //
