/*--------------------------------*- C++ -*----------------------------------*\
| =========                 |                                                 |
| \\      /  F ield         | OpenFOAM: The Open Source CFD Toolbox           |
|  \\    /   O peration     | Version:  dev                                   |
|   \\  /    A nd           | Web:      www.OpenFOAM.org                      |
|    \\/     M anipulation  |                                                 |
\*---------------------------------------------------------------------------*/
FoamFile
{
    version     2.0;
    format      ascii;
    class       dictionary;
    location    "system";
    object      fvOptions;
}
// * * * * * * * * * * * * * * * * * * * * * * * * * * * * * * * * * * * * * //

airDeflection
{
    type            directionalPressureGradientExplicitSource;
    active          true;
    selectionMode   cellZone;
    cellZone        c1Zone;

    directionalPressureGradientExplicitSourceCoeffs
    {
        fieldNames  (U);
        flowDir     (1 2 0);        // flow direction
        faceZone    f1Zone;
        relaxationFactor    0.3;

        //Pressure drop model [Pa]
        model       DarcyForchheimer;//volumetricFlowRateTable/constant

        //DarcyForchheimer
        D           5e7;
        I           0;
        length      0.01;

        //constant
        pressureDrop    8;

        //volumetricFlowRateTable
        outOfBounds     clamp;
        fileName        "volFlowRateTable";
    }
}

// ************************************************************************* //
